<?xml version="1.0" encoding="UTF-8"?>
<routes xmlns:xsi="http://www.w3.org/2001/XMLSchema-instance" xsi:noNamespaceSchemaLocation="http://sumo.dlr.de/xsd/routes_file.xsd">
    <vType id="default_vehicle" accel="2.6" decel="4.5" sigma="0.5" length="5" minGap="2.5" maxSpeed="25" color="1,1,0"/>

    <route id="route_0" edges="E0 E1"/>

    <!-- Add a default vehicle for testing -->
    <vehicle id="test" type="default_vehicle" route="route_0" depart="0"/>
</routes>